12
Data
P 0.000 0.000 0.000
S 1.000 0.000 0.000
Cl 0.000 1.000 0.000
P 0.000 0.000 2.000
S 1.000 0.000 2.000
Cl 0.000 1.000 2.000
P 0.000 0.000 4.000
S 1.000 0.000 4.000
Cl 0.000 1.000 4.000
P 0.000 0.000 6.000
S 1.000 0.000 6.000
Cl 0.000 1.000 6.000

0 1
0 4
0 7
1 2
4 5
7 8
2 3
5 6
8 9
3 10
6 11
9 12
10 11
11 12
12 10
